/*--------------------------------*- C++ -*----------------------------------*\
| =========                 |                                                 |
| \\      /  F ield         | OpenFOAM: The Open Source CFD Toolbox           |
|  \\    /   O peration     | Version:  5                                     |
|   \\  /    A nd           | Web:      www.OpenFOAM.org                      |
|    \\/     M anipulation  |                                                 |
\*---------------------------------------------------------------------------*/
FoamFile
{
    version     2.0;
    format      ascii;
    class       dictionary;
    location    "constant";
    object      porosityProperties;
}
// * * * * * * * * * * * * * * * * * * * * * * * * * * * * * * * * * * * * * //

porous
{
    type            DarcyForchheimer;

    cellZone        porous;

    d   (723112128.146453 7231121281.46453 7231121281.46453);
    f   (777.7451330474 7777.451330474 7777.451330474);

    coordinateSystem
    {
        type    cartesian;
        origin  (0 0 0);
        coordinateRotation
        {
            type    axesRotation;
            e1      (0 1 0);
            e2      (0 0 1);
        }
    }
}


// ************************************************************************* //
