/*--------------------------------*- C++ -*----------------------------------*\
| =========                 |                                                 |
| \\      /  F ield         | OpenFOAM: The Open Source CFD Toolbox           |
|  \\    /   O peration     | Version:  2.3.0                                 |
|   \\  /    A nd           | Web:      www.OpenFOAM.org                      |
|    \\/     M anipulation  |                                                 |
\*---------------------------------------------------------------------------*/
FoamFile
{
    version     2.0;
    format      ascii;
    class       volScalarField;
    object      k;
}
// * * * * * * * * * * * * * * * * * * * * * * * * * * * * * * * * * * * * * //

dimensions [0 2 -2 0 0 0 0];
internalField uniform 1e-9;
boundaryField
{
  WB_inlet
  {
    type fixedValue;
    value uniform 1e-9;
  }

  WB_outlet
  {
    type inletOutlet;
    inletValue $internalField;
    value uniform 0.0;
  }

  WB_fins
  {
    type kqRWallFunction;
    value uniform 0;
  }

  WB_walls
  {
    type kqRWallFunction;
    value uniform 0;
  }

  "procBoundary.*"
  {
    type processor;
    value $internalField;
  }
    #include "include/frontBackUpperPatches"

}

